# DIS package for  MODFLOW-2005, generated by Flopy.
         5       130       200         1         4         2
  0  0  0  0  0
CONSTANT    1.000000E+02                           #delr                          
CONSTANT    1.000000E+02                           #delc                          
INTERNAL               1 (200E15.6) -1 #model_top                     
   2.504520E+01   2.582162E+01   2.570795E+01   2.599408E+01   2.532274E+01   2.560787E+01   2.605511E+01   2.637483E+01   2.641461E+01   2.702673E+01   2.723820E+01   2.668817E+01   2.610644E+01   2.629967E+01   2.626895E+01   2.626670E+01   2.663438E+01   2.663129E+01   2.666818E+01   2.664272E+01   2.682440E+01   2.708633E+01   2.749250E+01   2.775792E+01   2.744781E+01   2.739913E+01   2.742635E+01   2.742175E+01   2.754062E+01   2.762304E+01   2.782416E+01   2.795272E+01   2.823065E+01   2.808215E+01   2.664655E+01   2.732185E+01   2.817844E+01   2.804312E+01   2.812381E+01   2.811647E+01   3.050399E+01   3.247149E+01   3.282890E+01   3.305663E+01   3.326856E+01   3.413385E+01   3.291404E+01   3.274982E+01   3.351271E+01   3.651018E+01   3.601827E+01   3.660173E+01   3.607404E+01   3.883287E+01   3.878973E+01   4.068777E+01   3.939021E+01   3.822182E+01   3.718323E+01   3.690003E+01   4.022940E+01   4.198038E+01   3.970026E+01   3.785511E+01   3.748067E+01   3.712749E+01   3.746070E+01   3.702533E+01   3.583031E+01   3.597573E+01   3.568779E+01   3.638544E+01   3.669140E+01   3.733418E+01   3.803071E+01   3.900261E+01   3.983913E+01   4.036608E+01   4.475380E+01   4.746102E+01   4.582302E+01   4.502493E+01   4.618336E+01   4.736334E+01   4.504187E+01   4.445914E+01   4.453802E+01   4.466878E+01   4.586732E+01   4.686671E+01   4.526247E+01   4.324091E+01   4.367986E+01   4.558371E+01   4.627364E+01   4.609862E+01   4.693467E+01   4.796535E+01   4.895925E+01   5.008574E+01   5.019999E+01   5.077788E+01   4.849405E+01   4.756457E+01   4.843251E+01   4.934050E+01   4.917982E+01   5.156203E+01   5.307198E+01   5.540084E+01   5.657861E+01   5.810451E+01   5.918602E+01   6.022401E+01   5.993719E+01   5.969088E+01   6.417818E+01   6.507148E+01   6.022108E+01   6.479025E+01   6.265046E+01   6.432784E+01   6.146660E+01   6.403280E+01   6.784548E+01   6.845113E+01   7.023485E+01   6.924371E+01   6.817590E+01   7.000647E+01   7.071169E+01   7.075465E+01   6.946571E+01   6.902633E+01   6.984113E+01   6.942971E+01   6.491487E+01   6.173774E+01   6.517442E+01   6.989733E+01   7.006203E+01   7.072329E+01   7.260153E+01   7.221990E+01   7.197200E+01   7.125668E+01   6.769540E+01   6.907919E+01   7.259042E+01   7.180810E+01   7.227795E+01   7.256966E+01   7.236694E+01   7.395409E+01   7.404421E+01   7.385867E+01   7.466549E+01   7.596018E+01   7.639149E+01   7.694721E+01   7.702168E+01   7.694700E+01   7.530115E+01   7.651599E+01   6.945744E+01   6.781384E+01   6.125987E+01   6.214374E+01   6.076422E+01   5.769496E+01   6.255259E+01   6.325807E+01   6.364185E+01   6.371568E+01   6.703597E+01   7.256413E+01   7.475452E+01   7.952210E+01   7.909494E+01   7.730933E+01   7.945508E+01   7.961385E+01   7.660846E+01   7.917554E+01   7.379086E+01   7.538007E+01   7.778966E+01   7.517821E+01   7.487158E+01   7.257997E+01   7.479594E+01   7.665501E+01   7.095103E+01   6.669838E+01   6.190791E+01   6.251886E+01   6.467100E+01   6.624000E+01   6.826351E+01   7.128802E+01
   2.608454E+01   2.628109E+01   2.638582E+01   2.610430E+01   2.564372E+01   2.613600E+01   2.613339E+01   2.640039E+01   2.653867E+01   2.735806E+01   2.740903E+01   2.679698E+01   2.636687E+01   2.615311E+01   2.647515E+01   2.656789E+01   2.652567E+01   2.662542E+01   2.662764E+01   2.662656E+01   2.672584E+01   2.684984E+01   2.695479E+01   2.730129E+01   2.720754E+01   2.742717E+01   2.722307E+01   2.728331E+01   2.720975E+01   2.740068E+01   2.759059E+01   2.772883E+01   2.801185E+01   2.784581E+01   2.662600E+01   2.789194E+01   2.804872E+01   2.661160E+01   2.812094E+01   2.843870E+01   2.952704E+01   3.019307E+01   3.144126E+01   3.220151E+01   3.268627E+01   3.287025E+01   3.192684E+01   3.242134E+01   3.358097E+01   3.463281E+01   3.437446E+01   3.624163E+01   3.605399E+01   3.798349E+01   3.989333E+01   4.200909E+01   4.013099E+01   3.892536E+01   3.746182E+01   3.764906E+01   4.034029E+01   4.285643E+01   3.957994E+01   3.882089E+01   3.855899E+01   3.894009E+01   4.061591E+01   3.747467E+01   3.570570E+01   3.583577E+01   3.591872E+01   3.571685E+01   3.609581E+01   3.651838E+01   3.710621E+01   3.778286E+01   3.876866E+01   4.053913E+01   4.598994E+01   4.618005E+01   4.480244E+01   4.499408E+01   4.653991E+01   4.672444E+01   4.563694E+01   4.495043E+01   4.492563E+01   4.489151E+01   4.527666E+01   4.457244E+01   4.374364E+01   4.374711E+01   4.483176E+01   4.559747E+01   4.665985E+01   4.727995E+01   4.624737E+01   4.708372E+01   4.811629E+01   4.923054E+01   5.051066E+01   5.168421E+01   5.107648E+01   5.081688E+01   5.260851E+01   5.319932E+01   5.303307E+01   5.363087E+01   5.407107E+01   5.648752E+01   5.934931E+01   6.105629E+01   6.193374E+01   6.304535E+01   6.209321E+01   6.399165E+01   6.482070E+01   6.324068E+01   6.450328E+01   6.598766E+01   6.400690E+01   6.739396E+01   6.195033E+01   6.486340E+01   6.853748E+01   6.885367E+01   6.999613E+01   6.911958E+01   6.865098E+01   6.980038E+01   7.049696E+01   7.068622E+01   7.121577E+01   7.007329E+01   6.999834E+01   6.915260E+01   6.554028E+01   6.417551E+01   6.257990E+01   6.448078E+01   6.526411E+01   6.882242E+01   6.870195E+01   6.645500E+01   6.677804E+01   6.718904E+01   6.796082E+01   6.994044E+01   7.064345E+01   7.259585E+01   7.251427E+01   7.395499E+01   7.395547E+01   7.401579E+01   7.483946E+01   7.449013E+01   7.474082E+01   7.616309E+01   7.694641E+01   7.685603E+01   7.694700E+01   7.694700E+01   7.336106E+01   7.102051E+01   6.691087E+01   6.887099E+01   6.301141E+01   5.828676E+01   5.700871E+01   6.174009E+01   6.786375E+01   7.073917E+01   6.696632E+01   7.266232E+01   6.795037E+01   6.717726E+01   7.261595E+01   7.390626E+01   7.444447E+01   7.507211E+01   7.713072E+01   7.969884E+01   7.942868E+01   8.007067E+01   7.998487E+01   8.022654E+01   8.033998E+01   7.264568E+01   6.767580E+01   6.806674E+01   6.850848E+01   7.061266E+01   7.384718E+01   6.930846E+01   6.401798E+01   6.183076E+01   6.441510E+01   6.490788E+01   6.766807E+01   6.931554E+01
   2.628043E+01   2.672668E+01   2.704593E+01   2.650345E+01   2.647366E+01   2.670711E+01   2.643004E+01   2.658983E+01   2.657091E+01   2.689317E+01   2.771886E+01   2.702949E+01   2.683305E+01   2.755699E+01   2.694552E+01   2.660319E+01   2.662918E+01   2.662613E+01   2.662600E+01   2.662600E+01   2.682920E+01   2.702861E+01   2.710384E+01   2.724571E+01   2.728180E+01   2.719382E+01   2.715021E+01   2.705709E+01   2.712648E+01   2.722083E+01   2.717264E+01   2.723106E+01   2.734703E+01   2.662600E+01   2.662600E+01   2.671203E+01   2.662600E+01   2.676200E+01   2.804659E+01   2.812560E+01   2.883017E+01   2.982648E+01   3.054023E+01   3.116464E+01   3.137964E+01   3.221813E+01   3.104015E+01   3.268562E+01   3.462913E+01   3.583538E+01   3.247698E+01   3.377485E+01   3.765584E+01   3.837872E+01   3.911814E+01   4.145276E+01   4.096105E+01   3.899703E+01   3.778873E+01   3.860904E+01   4.358286E+01   4.392292E+01   4.025079E+01   4.013837E+01   3.985515E+01   3.882204E+01   3.875925E+01   3.710658E+01   3.828885E+01   3.724743E+01   3.734174E+01   3.706178E+01   3.796085E+01   3.838124E+01   3.891889E+01   3.909493E+01   4.020101E+01   4.292030E+01   4.694007E+01   4.620435E+01   4.567323E+01   4.490606E+01   4.525373E+01   4.626086E+01   4.582020E+01   4.504402E+01   4.506100E+01   4.494438E+01   4.560661E+01   4.572890E+01   4.519113E+01   4.396476E+01   4.625846E+01   4.743397E+01   4.702774E+01   4.743251E+01   4.840907E+01   4.844050E+01   5.080349E+01   5.148812E+01   4.969843E+01   5.307965E+01   5.425090E+01   5.269542E+01   5.762057E+01   5.414249E+01   5.818334E+01   5.994616E+01   5.881558E+01   6.129530E+01   6.158558E+01   6.060365E+01   6.384508E+01   6.598835E+01   6.422150E+01   6.544402E+01   6.599240E+01   6.537995E+01   6.580931E+01   6.701184E+01   6.702010E+01   6.775037E+01   6.355241E+01   6.750909E+01   6.818865E+01   6.810969E+01   6.967837E+01   6.984563E+01   6.986819E+01   6.917947E+01   7.028448E+01   7.223327E+01   7.163640E+01   7.124718E+01   7.102932E+01   6.940870E+01   6.975133E+01   6.848766E+01   6.595699E+01   6.563373E+01   6.580606E+01   6.449629E+01   6.673740E+01   6.895042E+01   6.916400E+01   6.878989E+01   7.119596E+01   7.149174E+01   7.320017E+01   7.394700E+01   7.391792E+01   7.458850E+01   7.428916E+01   7.537711E+01   7.523146E+01   7.551559E+01   7.606216E+01   7.668655E+01   7.680415E+01   7.696720E+01   7.694700E+01   7.203136E+01   7.345721E+01   6.478897E+01   6.393055E+01   6.561849E+01   6.187864E+01   5.709074E+01   6.055609E+01   6.878011E+01   7.135236E+01   7.446558E+01   7.113580E+01   7.352525E+01   7.352456E+01   7.475085E+01   6.975423E+01   7.217252E+01   7.406933E+01   7.548051E+01   7.720513E+01   7.891579E+01   7.426814E+01   7.714938E+01   8.161177E+01   8.073049E+01   7.504288E+01   7.030308E+01   6.761254E+01   6.577045E+01   6.681067E+01   7.084135E+01   7.316959E+01   7.005967E+01   6.224645E+01   6.107852E+01   6.419376E+01   6.734318E+01   7.213369E+01   7.811655E+01
   2.668319E+01   2.745464E+01   2.842925E+01   2.687021E+01   2.705385E+01   2.662600E+01   2.662436E+01   2.661467E+01   2.661215E+01   2.676690E+01   2.748905E+01   2.721721E+01   2.717421E+01   2.731951E+01   2.693363E+01   2.665188E+01   2.662980E+01   2.662600E+01   2.662600E+01   2.672311E+01   2.701643E+01   2.692595E+01   2.712655E+01   2.713156E+01   2.714610E+01   2.699866E+01   2.691006E+01   2.683460E+01   2.706231E+01   2.699031E+01   2.673809E+01   2.687089E+01   2.684760E+01   2.662600E+01   2.685781E+01   2.725484E+01   2.829505E+01   2.843475E+01   2.815974E+01   2.864012E+01   2.932972E+01   2.954079E+01   2.988798E+01   3.026515E+01   3.075007E+01   3.098326E+01   3.076015E+01   3.116981E+01   3.127084E+01   3.203830E+01   3.187479E+01   3.537309E+01   3.410881E+01   3.679746E+01   3.819797E+01   4.122522E+01   4.077050E+01   4.016139E+01   3.875698E+01   3.911762E+01   4.205800E+01   4.146136E+01   4.096921E+01   4.119231E+01   4.037332E+01   3.908936E+01   3.899326E+01   3.765001E+01   3.925391E+01   3.873760E+01   3.884975E+01   3.962233E+01   4.089449E+01   4.050184E+01   4.133864E+01   4.042731E+01   4.178703E+01   4.310516E+01   4.656442E+01   4.745227E+01   4.638028E+01   4.574535E+01   4.596035E+01   4.635622E+01   4.661316E+01   4.659771E+01   4.651019E+01   4.665477E+01   4.751369E+01   4.641338E+01   4.726986E+01   4.642780E+01   4.740053E+01   4.891305E+01   4.895681E+01   5.157207E+01   5.494765E+01   5.547691E+01   5.664427E+01   5.916060E+01   5.219680E+01   5.281966E+01   5.568525E+01   5.876131E+01   5.963165E+01   6.027026E+01   5.519426E+01   6.067670E+01   6.113243E+01   6.223586E+01   6.252880E+01   6.418581E+01   6.603530E+01   6.788709E+01   6.730794E+01   6.683303E+01   6.669975E+01   6.763063E+01   6.725075E+01   6.784700E+01   6.770517E+01   6.726520E+01   6.539089E+01   6.707549E+01   6.770381E+01   6.788390E+01   6.862550E+01   7.027435E+01   7.077302E+01   6.818246E+01   7.105961E+01   7.004570E+01   7.263268E+01   7.402274E+01   7.330695E+01   7.464696E+01   7.484431E+01   7.272285E+01   6.939550E+01   6.896668E+01   6.848367E+01   6.673232E+01   6.999850E+01   7.182249E+01   7.234700E+01   6.995493E+01   7.201604E+01   7.267673E+01   7.311313E+01   7.395560E+01   7.385422E+01   7.501405E+01   7.668820E+01   7.649868E+01   7.593879E+01   7.625893E+01   7.656783E+01   7.695816E+01   7.639100E+01   7.668460E+01   7.513388E+01   6.863587E+01   6.893807E+01   6.680086E+01   6.548927E+01   5.935614E+01   5.676497E+01   5.709749E+01   6.701197E+01   7.279585E+01   7.262823E+01   7.488057E+01   7.783266E+01   7.812947E+01   7.784738E+01   7.794540E+01   7.845216E+01   7.658824E+01   8.056494E+01   8.130525E+01   8.119677E+01   7.722839E+01   7.109444E+01   7.388531E+01   7.793523E+01   7.443129E+01   7.405547E+01   6.910841E+01   6.566219E+01   6.417805E+01   6.477342E+01   6.658018E+01   6.890948E+01   7.213823E+01   6.215874E+01   6.088746E+01   6.402258E+01   7.146902E+01   8.288160E+01   8.088625E+01
   2.721214E+01   2.828248E+01   2.905969E+01   2.964890E+01   2.790520E+01   2.662600E+01   2.652599E+01   2.648544E+01   2.665834E+01   2.678243E+01   2.750243E+01   2.759112E+01   2.720831E+01   2.739473E+01   2.715827E+01   2.662826E+01   2.662600E+01   2.662600E+01   2.662600E+01   2.682034E+01   2.711411E+01   2.692515E+01   2.702810E+01   2.692675E+01   2.692689E+01   2.681576E+01   2.682600E+01   2.665141E+01   2.683458E+01   2.699579E+01   2.662600E+01   2.673930E+01   2.662600E+01   2.662600E+01   2.662600E+01   2.805042E+01   2.822744E+01   2.818860E+01   2.830572E+01   2.842105E+01   2.881283E+01   2.909476E+01   2.920687E+01   2.960310E+01   2.984876E+01   3.004595E+01   3.037062E+01   3.067765E+01   3.094047E+01   3.113233E+01   3.121145E+01   3.353785E+01   3.451012E+01   3.706785E+01   3.748751E+01   3.873853E+01   4.113375E+01   4.168380E+01   4.065208E+01   3.873334E+01   4.032355E+01   4.194689E+01   4.216533E+01   4.172622E+01   4.110375E+01   4.045469E+01   3.942979E+01   3.881882E+01   3.984180E+01   4.253075E+01   4.202235E+01   4.480885E+01   4.724197E+01   4.696792E+01   4.710816E+01   4.652577E+01   4.534590E+01   4.734495E+01   4.982703E+01   4.997438E+01   4.851224E+01   4.848605E+01   4.796136E+01   4.910997E+01   5.143463E+01   5.180665E+01   5.113045E+01   5.066887E+01   5.039787E+01   4.868268E+01   5.157569E+01   5.236972E+01   5.345633E+01   5.368015E+01   5.155706E+01   5.727555E+01   5.973485E+01   5.929541E+01   5.660826E+01   5.454793E+01   5.797650E+01   5.500373E+01   5.547327E+01   5.887811E+01   6.030165E+01   6.218289E+01   5.878247E+01   6.183718E+01   6.262952E+01   6.324533E+01   6.384173E+01   6.494145E+01   6.629469E+01   6.698930E+01   6.763239E+01   6.679374E+01   6.707271E+01   6.785939E+01   6.784700E+01   6.784700E+01   6.784700E+01   6.785964E+01   6.696190E+01   6.766300E+01   6.783152E+01   6.850169E+01   6.785269E+01   6.724712E+01   7.091083E+01   6.633290E+01   6.754044E+01   6.226619E+01   6.707869E+01   7.397997E+01   7.153264E+01   7.594337E+01   7.540498E+01   7.435027E+01   7.363365E+01   7.216889E+01   7.140616E+01   6.815279E+01   7.093059E+01   7.249298E+01   7.323958E+01   7.216817E+01   7.362329E+01   7.379182E+01   7.297373E+01   7.294485E+01   7.324204E+01   7.354866E+01   7.460635E+01   7.666991E+01   7.683331E+01   7.682603E+01   7.663228E+01   7.704698E+01   7.664241E+01   6.940388E+01   7.372388E+01   7.039501E+01   6.080113E+01   6.667795E+01   5.790090E+01   5.602074E+01   5.667175E+01   6.019353E+01   6.502079E+01   6.682954E+01   6.926865E+01   7.128558E+01   7.397126E+01   7.716238E+01   7.318618E+01   7.796911E+01   7.412276E+01   7.195394E+01   7.102133E+01   7.140089E+01   7.292110E+01   7.556226E+01   7.409755E+01   6.956591E+01   7.181505E+01   6.771560E+01   7.403796E+01   7.056155E+01   6.918071E+01   6.703728E+01   6.321154E+01   6.293481E+01   6.298884E+01   6.272978E+01   6.103160E+01   6.047919E+01   6.279068E+01   7.144282E+01   7.099662E+01   6.943854E+01
   2.735402E+01   2.808661E+01   2.898660E+01   2.973461E+01   2.903100E+01   2.662819E+01   2.654607E+01   2.662600E+01   2.662729E+01   2.667111E+01   2.667035E+01   2.679190E+01   2.686361E+01   2.730683E+01   2.732832E+01   2.662600E+01   2.662600E+01   2.662600E+01   2.662600E+01   2.692001E+01   2.722738E+01   2.738855E+01   2.713981E+01   2.682600E+01   2.675546E+01   2.682600E+01   2.662600E+01   2.678125E+01   2.696543E+01   2.814859E+01   2.654969E+01   2.655387E+01   2.662600E+01   2.769246E+01   2.804421E+01   2.830901E+01   2.733673E+01   2.816812E+01   2.840396E+01   2.847492E+01   2.814111E+01   2.835923E+01   2.836638E+01   2.822771E+01   2.813183E+01   2.918367E+01   2.998468E+01   3.061501E+01   3.091393E+01   3.166133E+01   3.369953E+01   3.574179E+01   3.890445E+01   4.311621E+01   4.336580E+01   4.464559E+01   4.474618E+01   4.500655E+01   4.454931E+01   4.140178E+01   4.230882E+01   4.201320E+01   4.328131E+01   4.287170E+01   4.238040E+01   4.112470E+01   3.996541E+01   3.969254E+01   4.214887E+01   4.498806E+01   4.568053E+01   5.281153E+01   5.410065E+01   5.382129E+01   5.204662E+01   4.978256E+01   4.800742E+01   5.065279E+01   5.300677E+01   5.257019E+01   5.156163E+01   5.304404E+01   5.065384E+01   5.425159E+01   5.743135E+01   5.740063E+01   5.694711E+01   5.670993E+01   5.530284E+01   5.177671E+01   5.730609E+01   5.685940E+01   5.685015E+01   5.671378E+01   5.228057E+01   5.982357E+01   6.208031E+01   6.015726E+01   5.872151E+01   5.765763E+01   5.942828E+01   5.803964E+01   6.263935E+01   5.937423E+01   5.903073E+01   6.175312E+01   6.036520E+01   6.281176E+01   6.480565E+01   6.457758E+01   6.361826E+01   6.518299E+01   6.769680E+01   6.790943E+01   6.692271E+01   6.751379E+01   6.737701E+01   6.784700E+01   6.784700E+01   6.784700E+01   6.784700E+01   6.711816E+01   6.754909E+01   6.785670E+01   6.860557E+01   7.116355E+01   6.922633E+01   6.483540E+01   6.819534E+01   6.232414E+01   5.962830E+01   6.334377E+01   7.095219E+01   6.877518E+01   6.438497E+01   7.490313E+01   7.427428E+01   7.202267E+01   7.059774E+01   7.339816E+01   7.284314E+01   7.166261E+01   6.971531E+01   7.402207E+01   7.379630E+01   7.398061E+01   7.451804E+01   7.460684E+01   7.384080E+01   7.355468E+01   7.381591E+01   7.381897E+01   7.439310E+01   7.536118E+01   7.656153E+01   7.702609E+01   7.711046E+01   7.703762E+01   7.602274E+01   6.705922E+01   6.765314E+01   6.907074E+01   6.833595E+01   6.158893E+01   5.698129E+01   5.589896E+01   5.805244E+01   6.007271E+01   6.206190E+01   6.768707E+01   6.985905E+01   7.394521E+01   7.516280E+01   7.690023E+01   7.065276E+01   7.473259E+01   7.353965E+01   7.008015E+01   6.766930E+01   6.688004E+01   6.758537E+01   6.980697E+01   7.122812E+01   6.707449E+01   7.102571E+01   6.860391E+01   7.348241E+01   7.035822E+01   6.939732E+01   6.626989E+01   6.273413E+01   6.193651E+01   6.158920E+01   6.190326E+01   6.316726E+01   6.003837E+01   6.243271E+01   6.528273E+01   6.504729E+01   6.478621E+01
   2.686653E+01   2.786462E+01   2.862065E+01   2.905117E+01   2.954035E+01   2.766748E+01   2.662600E+01   2.662600E+01   2.662600E+01   2.663016E+01   2.662600E+01   2.662600E+01   2.681981E+01   2.733665E+01   2.762463E+01   2.728827E+01   2.683217E+01   2.662600E+01   2.662600E+01   2.688244E+01   2.768513E+01   2.801275E+01   2.720129E+01   2.672541E+01   2.662936E+01   2.673390E+01   2.662600E+01   2.662600E+01   2.662600E+01   2.643816E+01   2.642437E+01   2.662523E+01   2.802398E+01   2.667232E+01   2.722301E+01   2.718456E+01   2.861963E+01   2.813084E+01   2.702174E+01   2.769937E+01   2.798878E+01   2.813410E+01   2.817325E+01   2.810629E+01   2.884763E+01   2.974528E+01   3.033767E+01   3.158472E+01   3.226435E+01   3.675772E+01   3.933115E+01   4.351691E+01   4.216762E+01   4.592978E+01   4.666413E+01   4.710057E+01   4.574147E+01   4.502272E+01   4.342968E+01   4.488958E+01   4.544294E+01   4.500167E+01   4.591515E+01   4.552064E+01   4.411760E+01   4.239328E+01   4.114270E+01   4.161709E+01   4.481042E+01   5.032652E+01   5.172686E+01   5.192053E+01   5.248875E+01   5.208984E+01   5.305435E+01   4.973434E+01   4.846355E+01   5.040644E+01   5.306792E+01   5.413567E+01   5.424746E+01   5.559727E+01   5.538454E+01   5.416336E+01   5.519241E+01   5.726685E+01   5.560514E+01   5.615330E+01   5.365901E+01   5.274098E+01   5.479296E+01   5.712530E+01   5.770078E+01   5.864759E+01   5.549631E+01   5.857263E+01   6.146128E+01   5.943376E+01   5.964265E+01   5.932875E+01   5.968700E+01   6.144376E+01   6.073172E+01   6.174700E+01   5.956994E+01   6.172097E+01   6.256002E+01   6.452740E+01   6.481077E+01   6.612463E+01   6.183325E+01   6.475572E+01   6.808514E+01   6.728343E+01   6.682990E+01   6.774055E+01   6.750809E+01   6.784700E+01   6.774604E+01   6.744628E+01   6.785062E+01   6.784724E+01   6.844614E+01   6.891186E+01   6.991100E+01   6.785786E+01   6.875450E+01   6.468251E+01   6.082330E+01   5.984960E+01   5.640536E+01   6.344444E+01   6.812697E+01   6.665088E+01   5.774694E+01   6.284835E+01   5.858556E+01   6.000408E+01   6.364145E+01   7.018605E+01   7.199510E+01   7.255905E+01   7.198905E+01   7.287317E+01   7.467837E+01   7.578648E+01   7.625154E+01   7.637843E+01   7.535979E+01   7.408461E+01   7.376403E+01   7.394695E+01   7.394695E+01   7.440164E+01   7.609550E+01   7.722632E+01   7.220319E+01   7.466734E+01   7.187029E+01   6.694948E+01   5.909303E+01   6.605748E+01   6.248276E+01   5.792838E+01   5.473112E+01   5.487252E+01   6.237595E+01   7.012177E+01   7.084122E+01   7.092382E+01   7.365411E+01   7.423281E+01   7.143279E+01   6.902612E+01   7.545157E+01   7.575565E+01   7.735259E+01   6.861146E+01   6.830445E+01   6.567758E+01   6.716486E+01   6.690551E+01   7.127404E+01   7.062230E+01   6.317146E+01   6.905769E+01   7.258824E+01   6.976665E+01   6.594962E+01   6.464196E+01   6.507919E+01   6.209142E+01   6.118105E+01   5.980279E+01   5.942592E+01   5.993764E+01   6.097721E+01   6.220773E+01   6.250669E+01   6.413301E+01
   2.722126E+01   2.770510E+01   2.822237E+01   2.834933E+01   2.857373E+01   2.715775E+01   2.662600E+01   2.652664E+01   2.662600E+01   2.669560E+01   2.680561E+01   2.662644E+01   2.663663E+01   2.731174E+01   2.792892E+01   2.795371E+01   2.816044E+01   2.704780E+01   2.671453E+01   2.699973E+01   2.772552E+01   2.812600E+01   2.737274E+01   2.667654E+01   2.681726E+01   2.662600E+01   2.662600E+01   2.662600E+01   2.662600E+01   2.636951E+01   2.662802E+01   2.687040E+01   2.720829E+01   2.832619E+01   2.804763E+01   2.656633E+01   2.739132E+01   2.673484E+01   2.696444E+01   2.853119E+01   2.921609E+01   2.880914E+01   3.041141E+01   2.966170E+01   3.051294E+01   3.097928E+01   3.160479E+01   3.420319E+01   3.502180E+01   4.086436E+01   4.531744E+01   4.710006E+01   4.642188E+01   4.720996E+01   4.760847E+01   4.645667E+01   4.343162E+01   4.200043E+01   4.406166E+01   4.709522E+01   4.830569E+01   4.857151E+01   4.905520E+01   4.876266E+01   4.705814E+01   4.648910E+01   4.336439E+01   4.445652E+01   4.857869E+01   5.172201E+01   5.183767E+01   5.071630E+01   5.089752E+01   4.998628E+01   4.956029E+01   4.701161E+01   4.993219E+01   5.350142E+01   5.475126E+01   5.508552E+01   5.554023E+01   5.502055E+01   5.539612E+01   5.540939E+01   5.715068E+01   5.588983E+01   5.633505E+01   5.869703E+01   5.643582E+01   5.737793E+01   5.662014E+01   5.410115E+01   5.709377E+01   5.773109E+01   5.881998E+01   5.841861E+01   6.122807E+01   6.153856E+01   6.142392E+01   6.127950E+01   6.189500E+01   6.158268E+01   6.174700E+01   6.174700E+01   6.099473E+01   6.192682E+01   6.342958E+01   6.480517E+01   6.452177E+01   6.444627E+01   5.367300E+01   5.815827E+01   6.242253E+01   6.527497E+01   6.574256E+01   6.634628E+01   6.710005E+01   6.775986E+01   6.778435E+01   6.785079E+01   6.784690E+01   6.827390E+01   6.983544E+01   7.023942E+01   7.085542E+01   6.853818E+01   6.277150E+01   6.192338E+01   5.711816E+01   5.607548E+01   5.669315E+01   6.082194E+01   6.286481E+01   6.066651E+01   5.434856E+01   5.753817E+01   6.323369E+01   6.945685E+01   7.330446E+01   7.652818E+01   7.197163E+01   7.551174E+01   7.371143E+01   7.607147E+01   7.695657E+01   7.778741E+01   7.848320E+01   7.885025E+01   7.548154E+01   7.412622E+01   7.402538E+01   7.387405E+01   7.314953E+01   7.310858E+01   7.419099E+01   7.333090E+01   6.978718E+01   6.684379E+01   6.359389E+01   6.521883E+01   5.866496E+01   5.901507E+01   5.350509E+01   5.369951E+01   5.504368E+01   5.809946E+01   6.050203E+01   6.541373E+01   6.952520E+01   7.243795E+01   7.343519E+01   7.239233E+01   7.151347E+01   6.910573E+01   6.929881E+01   7.144485E+01   7.217295E+01   6.570029E+01   6.900265E+01   6.816926E+01   6.630949E+01   6.037094E+01   7.103800E+01   6.874849E+01   6.266370E+01   7.217503E+01   7.410056E+01   7.439436E+01   6.718735E+01   6.705383E+01   6.599664E+01   6.650323E+01   7.052728E+01   6.387129E+01   5.845870E+01   6.031716E+01   6.530134E+01   6.675864E+01   6.023988E+01   6.736974E+01
   2.693587E+01   2.761479E+01   2.812600E+01   2.803031E+01   2.812600E+01   2.666956E+01   2.662600E+01   2.662600E+01   2.678321E+01   2.662600E+01   2.662600E+01   2.662600E+01   2.662600E+01   2.737679E+01   2.813913E+01   2.812512E+01   2.812960E+01   2.723474E+01   2.712588E+01   2.751536E+01   2.791361E+01   2.812600E+01   2.768774E+01   2.747867E+01   2.721907E+01   2.678062E+01   2.688941E+01   2.701215E+01   2.800931E+01   2.597962E+01   2.652857E+01   2.682415E+01   2.747883E+01   2.657851E+01   2.641369E+01   2.662244E+01   2.828683E+01   2.804100E+01   2.814599E+01   2.819328E+01   2.978618E+01   3.045522E+01   3.207130E+01   3.219283E+01   3.340673E+01   3.722414E+01   3.542098E+01   3.873708E+01   4.440470E+01   4.287434E+01   4.464301E+01   4.620573E+01   4.602388E+01   4.688557E+01   4.577087E+01   4.429089E+01   4.125671E+01   4.158741E+01   4.661838E+01   4.804745E+01   4.817646E+01   4.953798E+01   4.957917E+01   4.952010E+01   5.035098E+01   5.039691E+01   4.733588E+01   4.459681E+01   5.079738E+01   5.111219E+01   5.132048E+01   4.778040E+01   5.121384E+01   5.248749E+01   4.997467E+01   4.544869E+01   5.116776E+01   5.207445E+01   5.403414E+01   5.471841E+01   5.412463E+01   5.499454E+01   5.518775E+01   5.627476E+01   5.665761E+01   5.756999E+01   5.523612E+01   5.603141E+01   5.778934E+01   5.782683E+01   5.801764E+01   5.785561E+01   5.609774E+01   5.863138E+01   6.090691E+01   6.045983E+01   6.147549E+01   6.175057E+01   6.174492E+01   6.263435E+01   6.215274E+01   6.200078E+01   6.174700E+01   6.175253E+01   6.174706E+01   6.186204E+01   5.894500E+01   6.508614E+01   6.238198E+01   5.483708E+01   6.509846E+01   6.420559E+01   6.004846E+01   6.226409E+01   6.240637E+01   6.507330E+01   6.459495E+01   6.584097E+01   6.726194E+01   6.779504E+01   6.783795E+01   6.841217E+01   7.077409E+01   7.000374E+01   6.986594E+01   6.888826E+01   6.495343E+01   5.759307E+01   5.559161E+01   5.301093E+01   5.594189E+01   5.785479E+01   5.647484E+01   5.686859E+01   5.402939E+01   6.789889E+01   7.490481E+01   6.878312E+01   7.935733E+01   7.960323E+01   7.893987E+01   7.906239E+01   7.874976E+01   8.044865E+01   8.055953E+01   8.123273E+01   8.267357E+01   8.144830E+01   6.921434E+01   6.893539E+01   7.478163E+01   7.415511E+01   7.411508E+01   7.401926E+01   6.820766E+01   6.432864E+01   6.172302E+01   5.956475E+01   5.858374E+01   5.769182E+01   5.650590E+01   5.587025E+01   5.294882E+01   5.429350E+01   5.849977E+01   6.201753E+01   5.970252E+01   6.756565E+01   6.980926E+01   7.270706E+01   7.332112E+01   6.910443E+01   6.518520E+01   6.565757E+01   6.472494E+01   7.520119E+01   7.010288E+01   6.319911E+01   6.626396E+01   6.918467E+01   7.292937E+01   6.608618E+01   6.109246E+01   6.507841E+01   5.872653E+01   6.886499E+01   6.971127E+01   7.771439E+01   6.962949E+01   7.067815E+01   7.435774E+01   7.534083E+01   8.242207E+01   6.442011E+01   5.767586E+01   5.819574E+01   6.573286E+01   6.470527E+01   5.762245E+01   5.810030E+01